examples/CigreB4/CigreB4_DC_node_data.csv
Node_id,type,Voltage_0,Power_Gained,Power_load,kV_base
BmA1,Slack,1,0,0,200
BmC1,P,1.01057,0,0,200
BbA1,P,1.01,0,0,400
BbB1,P,0.998161,6,0,400
BbB1s,P,1.00489,0,6,400
BbB2,P,0.98351,0,0,400
BbC2,P,1.01456,0,0,400
BbD1,P,1.01529,0,0,400
BbE1,P,1.00906,3,0,400
BmB2,P,0.99,0,0,200
BmB3,P,0.986679,0,0,200
BmB5,P,0.998151,0,0,200
BmE1,P,1.01305,0,3,200
BmF1,P,1.00764,0,0,200
BbB4,P,0.992747,0,0,200
